%mem=4GB
%nprocshared=6
%chk=B3LYP-gs.chk
#P 6-31+G(d)   opt    B3LYP 

 TEST 

0 1
6 1.485052 -2.433954 0.026499
6 0.736986 -1.253995 0.013643
6 -0.735696 -1.254585 0.013161
6 -1.483047 -2.434974 0.025515
6 1.429521 0.000736 0.000463
6 -1.429521 -0.000736 -0.000463
6 -0.736986 1.253995 -0.013643
6 0.735696 1.254585 -0.013161
6 -1.485052 2.433954 -0.026499
6 -2.884457 2.418638 -0.026808
6 -3.570248 1.219724 -0.014224
6 -2.858687 -0.001421 -0.000927
6 -3.570250 -1.222846 0.011897
6 -2.882346 -2.420927 0.024914
1 -3.453142 -3.340847 0.034543
1 -3.456769 3.337743 -0.036816
6 2.884457 -2.418638 0.026808
6 3.570248 -1.219724 0.014224
6 2.858687 0.001421 0.000927
1 3.456769 -3.337743 0.036816
6 3.570250 1.222846 -0.011897
6 2.882346 2.420927 -0.024914
6 1.483047 2.434974 -0.025515
1 3.453142 3.340847 -0.034543
1 -0.985303 3.392450 -0.036559
1 0.982745 3.393172 -0.035890
1 0.985303 -3.392450 0.036559
1 -0.982745 -3.393172 0.035890
6 -5.048339 1.242239 -0.014960
8 -5.707548 2.293524 -0.026448
6 -5.049837 -1.252232 0.011729
8 -5.692837 -2.314525 0.022876
6 5.048339 -1.242239 0.014960
8 5.707548 -2.293524 0.026448
6 5.049837 1.252232 -0.011729
8 5.692837 2.314525 -0.022876
7 -5.691915 -0.003275 -0.001823
7 5.691915 0.003275 0.001823
6 -7.174238 0.018337 -0.002524
1 -7.532889 0.534136 -0.895816
1 -7.502345 -1.019046 0.008386
1 -7.533468 0.552988 0.879379
6 7.174238 -0.018337 0.002524
1 7.502345 1.019046 -0.008386
1 7.532889 -0.534136 0.895816
1 7.533468 -0.552988 -0.879379


--link1--
%mem=4GB
%nprocshared=6
%chk=B3LYP-gs.chk
#P chkbasis geom=allcheck guess=read      freq B3LYP 

 